puts "Building Model..." 
model basic -ndm 3 -ndf 6 
node 6000 0.000000 0.000000 0.000000 
node 6001 0.000000 120.000000 0.000000 
node 6002 300.000000 120.000000 0.000000 
node 6003 300.000000 0.000000 0.000000 
node 6004 0.000000 0.000000 300.000000 
node 6005 0.000000 120.000000 300.000000 
node 6006 300.000000 120.000000 300.000000 
node 6007 300.000000 0.000000 300.000000 
node 6008 0.000000 0.000000 150.000000 
node 6009 0.000000 120.000000 150.000000 
node 6010 300.000000 0.000000 150.000000 
node 6011 300.000000 120.000000 150.000000 
node 6012 0.000000 240.000000 0.000000 
node 6013 300.000000 240.000000 0.000000 
node 6014 0.000000 240.000000 300.000000 
node 6015 300.000000 240.000000 300.000000 
node 6016 0.000000 240.000000 150.000000 
node 6017 300.000000 240.000000 150.000000 
node 6018 0.000000 90.000000 0.000000 
node 6019 12.000000 105.000000 0.000000 
# ... 52 like lines cut
fix 6000 1 1 1 1 1 1 
fix 6001 0 0 0 0 0 0 
fix 6002 0 0 0 0 0 0 
fix 6003 1 1 1 1 1 1 
fix 6004 1 1 1 1 1 1 
fix 6005 0 0 0 0 0 0 
fix 6006 0 0 0 0 0 0 
fix 6007 1 1 1 1 1 1 
fix 6008 1 1 1 1 1 1 
fix 6009 0 0 0 0 0 0 
fix 6010 1 1 1 1 1 1 
fix 6011 0 0 0 0 0 0 
fix 6012 0 0 0 0 0 0 
fix 6013 0 0 0 0 0 0 
fix 6014 0 0 0 0 0 0 
fix 6015 0 0 0 0 0 0 
fix 6016 0 0 0 0 0 0 
fix 6017 0 0 0 0 0 0 
fix 6018 0 0 0 0 0 0 
fix 6019 0 0 0 0 0 0 
# ... 52 like lines cut
mass 6000 0.000000 0. 0.000000 0. 0. 0. 
mass 6001 129.533679 0. 129.533679 0. 0. 0. 
mass 6002 129.533679 0. 129.533679 0. 0. 0. 
mass 6003 0.000000 0. 0.000000 0. 0. 0. 
mass 6004 0.000000 0. 0.000000 0. 0. 0. 
mass 6005 129.533679 0. 129.533679 0. 0. 0. 
mass 6006 129.533679 0. 129.533679 0. 0. 0. 
mass 6007 0.000000 0. 0.000000 0. 0. 0. 
mass 6008 0.000000 0. 0.000000 0. 0. 0. 
mass 6009 129.533679 0. 129.533679 0. 0. 0. 
mass 6010 0.000000 0. 0.000000 0. 0. 0. 
mass 6011 129.533679 0. 129.533679 0. 0. 0. 
mass 6012 129.533679 0. 129.533679 0. 0. 0. 
mass 6013 129.533679 0. 129.533679 0. 0. 0. 
mass 6014 129.533679 0. 129.533679 0. 0. 0. 
mass 6015 129.533679 0. 129.533679 0. 0. 0. 
mass 6016 129.533679 0. 129.533679 0. 0. 0. 
mass 6017 129.533679 0. 129.533679 0. 0. 0. 
mass 6018 0.000000 0. 0.000000 0. 0. 0. 
mass 6019 0.000000 0. 0.000000 0. 0. 0. 
# ... 52 like lines cut
geomTransf PDelta 1 0 0 1 
geomTransf PDelta 2 0 0 1 
geomTransf PDelta 3 -1 0 0 
geomTransf PDelta 4 1 0 0 
element elasticBeamColumn 1 6046 6047 576.000000 4936344.802000 2146236.870000 55296.000000 12165.120000 12165.120000 1 
element elasticBeamColumn 2 6048 6049 720.000000 4415201.015000 1919652.615000 88560.000000 164172.800000 31353.928573 2 
element elasticBeamColumn 3 6050 6051 576.000000 4936344.802000 2146236.870000 55296.000000 12165.120000 12165.120000 1 
element elasticBeamColumn 4 6052 6053 576.000000 4936344.802000 2146236.870000 55296.000000 12165.120000 12165.120000 1 
element elasticBeamColumn 5 6054 6055 720.000000 4415201.015000 1919652.615000 88560.000000 164172.800000 31353.928573 2 
element elasticBeamColumn 6 6056 6057 576.000000 4936344.802000 2146236.870000 55296.000000 12165.120000 12165.120000 1 
element elasticBeamColumn 7 6058 6009 3072.000000 4415201.015000 1919652.615000 16814080.000000 12902.400000 5872025.600000 4 
element elasticBeamColumn 8 6059 6011 3072.000000 4415201.015000 1919652.615000 16814080.000000 12902.400000 5872025.600000 4 
element elasticBeamColumn 9 6060 6061 576.000000 4936344.802000 2146236.870000 55296.000000 12165.120000 12165.120000 1 
element elasticBeamColumn 10 6062 6063 720.000000 4415201.015000 1919652.615000 88560.000000 164172.800000 31353.928573 2 
element elasticBeamColumn 11 6064 6065 576.000000 4936344.802000 2146236.870000 55296.000000 12165.120000 12165.120000 1 
element elasticBeamColumn 12 6066 6067 576.000000 4936344.802000 2146236.870000 55296.000000 12165.120000 12165.120000 1 
element elasticBeamColumn 13 6068 6069 720.000000 4415201.015000 1919652.615000 88560.000000 164172.800000 31353.928573 2 
element elasticBeamColumn 14 6070 6071 576.000000 4936344.802000 2146236.870000 55296.000000 12165.120000 12165.120000 1 
element elasticBeamColumn 15 6009 6016 3072.000000 4415201.015000 1919652.615000 16814080.000000 12902.400000 5872025.600000 4 
element elasticBeamColumn 16 6011 6017 3072.000000 4415201.015000 1919652.615000 16814080.000000 12902.400000 5872025.600000 4 
uniaxialMaterial Elastic 1 999999999999999. 
node 40001 0.000000 105.000000 0.000000 
node 45001 6.000000 105.000000 0.000000 
element elasticBeamColumn 1000002 45001 6019 720.000000 4415201.015000 1919652.615000 88560.000000 149248.000000 28503.571430 2 
element elasticBeamColumn 1000008 40001 45001 1000. 99999999. 99999999. 99999. 200000. 200000. 2 
node 54001 0.000000 97.500000 0.000000 
element elasticBeamColumn 1000003 6018 54001 576.000000 4936344.802000 2146236.870000 55296.000000 11059.200000 11059.200000 1 
element elasticBeamColumn 1000009 54001 40001 1000. 99999999. 99999999. 99999. 200000. 200000. 1 
node 55001 0.000000 112.500000 0.000000 
element elasticBeamColumn 1000004 55001 6001 576.000000 4936344.802000 2146236.870000 55296.000000 11059.200000 11059.200000 1 
element elasticBeamColumn 1000010 40001 55001 1000. 99999999. 99999999. 99999. 200000. 200000. 1 
node 40002 300.000000 105.000000 0.000000 
node 44002 294.000000 105.000000 0.000000 
element elasticBeamColumn 2000001 6021 44002 720.000000 4415201.015000 1919652.615000 88560.000000 149248.000000 28503.571430 2 
element elasticBeamColumn 2000007 44002 40002 1000. 99999999. 99999999. 99999. 200000. 200000. 2 
node 54002 300.000000 97.500000 0.000000 
element elasticBeamColumn 2000003 6020 54002 576.000000 4936344.802000 2146236.870000 55296.000000 11059.200000 11059.200000 1 
element elasticBeamColumn 2000009 54002 40002 1000. 99999999. 99999999. 99999. 200000. 200000. 1 
node 55002 300.000000 112.500000 0.000000 
element elasticBeamColumn 2000004 55002 6002 576.000000 4936344.802000 2146236.870000 55296.000000 11059.200000 11059.200000 1 
element elasticBeamColumn 2000010 40002 55002 1000. 99999999. 99999999. 99999. 200000. 200000. 1 
node 40003 0.000000 105.000000 300.000000 
node 45003 6.000000 105.000000 300.000000 
element elasticBeamColumn 3000002 45003 6023 720.000000 4415201.015000 1919652.615000 88560.000000 149248.000000 28503.571430 2 
element elasticBeamColumn 3000008 40003 45003 1000. 99999999. 99999999. 99999. 200000. 200000. 2 
node 54003 0.000000 97.500000 300.000000 
element elasticBeamColumn 3000003 6022 54003 576.000000 4936344.802000 2146236.870000 55296.000000 11059.200000 11059.200000 1 
element elasticBeamColumn 3000009 54003 40003 1000. 99999999. 99999999. 99999. 200000. 200000. 1 
node 55003 0.000000 112.500000 300.000000 
element elasticBeamColumn 3000004 55003 6005 576.000000 4936344.802000 2146236.870000 55296.000000 11059.200000 11059.200000 1 
element elasticBeamColumn 3000010 40003 55003 1000. 99999999. 99999999. 99999. 200000. 200000. 1 
node 40004 300.000000 105.000000 300.000000 
node 44004 294.000000 105.000000 300.000000 
element elasticBeamColumn 4000001 6025 44004 720.000000 4415201.015000 1919652.615000 88560.000000 149248.000000 28503.571430 2 
element elasticBeamColumn 4000007 44004 40004 1000. 99999999. 99999999. 99999. 200000. 200000. 2 
node 54004 300.000000 97.500000 300.000000 
element elasticBeamColumn 4000003 6024 54004 576.000000 4936344.802000 2146236.870000 55296.000000 11059.200000 11059.200000 1 
element elasticBeamColumn 4000009 54004 40004 1000. 99999999. 99999999. 99999. 200000. 200000. 1 
node 55004 300.000000 112.500000 300.000000 
element elasticBeamColumn 4000004 55004 6006 576.000000 4936344.802000 2146236.870000 55296.000000 11059.200000 11059.200000 1 
element elasticBeamColumn 4000010 40004 55004 1000. 99999999. 99999999. 99999. 200000. 200000. 1 
node 40005 0.000000 225.000000 0.000000 
node 45005 6.000000 225.000000 0.000000 
element elasticBeamColumn 5000002 45005 6027 720.000000 4415201.015000 1919652.615000 88560.000000 149248.000000 28503.571430 2 
element elasticBeamColumn 5000008 40005 45005 1000. 99999999. 99999999. 99999. 200000. 200000. 2 
node 54005 0.000000 217.500000 0.000000 
element elasticBeamColumn 5000003 6026 54005 576.000000 4936344.802000 2146236.870000 55296.000000 11059.200000 11059.200000 1 
element elasticBeamColumn 5000009 54005 40005 1000. 99999999. 99999999. 99999. 200000. 200000. 1 
node 55005 0.000000 232.500000 0.000000 
element elasticBeamColumn 5000004 55005 6012 1000. 99999999. 99999999. 99999. 200000. 200000. 1 
element elasticBeamColumn 5000010 40005 55005 1000. 99999999. 99999999. 99999. 200000. 200000. 1 
node 40006 300.000000 225.000000 0.000000 
node 44006 294.000000 225.000000 0.000000 
element elasticBeamColumn 6000001 6029 44006 720.000000 4415201.015000 1919652.615000 88560.000000 149248.000000 28503.571430 2 
element elasticBeamColumn 6000007 44006 40006 1000. 99999999. 99999999. 99999. 200000. 200000. 2 
node 54006 300.000000 217.500000 0.000000 
element elasticBeamColumn 6000003 6028 54006 576.000000 4936344.802000 2146236.870000 55296.000000 11059.200000 11059.200000 1 
element elasticBeamColumn 6000009 54006 40006 1000. 99999999. 99999999. 99999. 200000. 200000. 1 
node 55006 300.000000 232.500000 0.000000 
element elasticBeamColumn 6000004 55006 6013 1000. 99999999. 99999999. 99999. 200000. 200000. 1 
element elasticBeamColumn 6000010 40006 55006 1000. 99999999. 99999999. 99999. 200000. 200000. 1 
node 40007 0.000000 225.000000 300.000000 
node 45007 6.000000 225.000000 300.000000 
element elasticBeamColumn 7000002 45007 6031 720.000000 4415201.015000 1919652.615000 88560.000000 149248.000000 28503.571430 2 
element elasticBeamColumn 7000008 40007 45007 1000. 99999999. 99999999. 99999. 200000. 200000. 2 
node 54007 0.000000 217.500000 300.000000 
element elasticBeamColumn 7000003 6030 54007 576.000000 4936344.802000 2146236.870000 55296.000000 11059.200000 11059.200000 1 
element elasticBeamColumn 7000009 54007 40007 1000. 99999999. 99999999. 99999. 200000. 200000. 1 
node 55007 0.000000 232.500000 300.000000 
element elasticBeamColumn 7000004 55007 6014 1000. 99999999. 99999999. 99999. 200000. 200000. 1 
element elasticBeamColumn 7000010 40007 55007 1000. 99999999. 99999999. 99999. 200000. 200000. 1 
node 40008 300.000000 225.000000 300.000000 
node 44008 294.000000 225.000000 300.000000 
element elasticBeamColumn 8000001 6033 44008 720.000000 4415201.015000 1919652.615000 88560.000000 149248.000000 28503.571430 2 
element elasticBeamColumn 8000007 44008 40008 1000. 99999999. 99999999. 99999. 200000. 200000. 2 
node 54008 300.000000 217.500000 300.000000 
element elasticBeamColumn 8000003 6032 54008 576.000000 4936344.802000 2146236.870000 55296.000000 11059.200000 11059.200000 1 
element elasticBeamColumn 8000009 54008 40008 1000. 99999999. 99999999. 99999. 200000. 200000. 1 
node 55008 300.000000 232.500000 300.000000 
element elasticBeamColumn 8000004 55008 6015 1000. 99999999. 99999999. 99999. 200000. 200000. 1 
element elasticBeamColumn 8000010 40008 55008 1000. 99999999. 99999999. 99999. 200000. 200000. 1 
uniaxialMaterial Elastic 2 999999999999. 
rigidDiaphragm 2 6034  6035  6036  6037  6038  6039 
element zeroLength 21001 6034 6001 -mat 2 2 2 2 2 2 -dir 1 2 3 4 5 6 
element zeroLength 21002 6035 6002 -mat 2 2 2 2 2 2 -dir 1 2 3 4 5 6 
element zeroLength 21003 6036 6005 -mat 2 2 2 2 2 2 -dir 1 2 3 4 5 6 
element zeroLength 21004 6037 6006 -mat 2 2 2 2 2 2 -dir 1 2 3 4 5 6 
element zeroLength 21005 6038 6009 -mat 2 2 2 2 2 2 -dir 1 2 3 4 5 6 
element zeroLength 21006 6039 6011 -mat 2 2 2 2 2 2 -dir 1 2 3 4 5 6 
rigidDiaphragm 2 6040  6041  6042  6043  6044  6045 
element zeroLength 22001 6040 6012 -mat 2 2 2 2 2 2 -dir 1 2 3 4 5 6 
element zeroLength 22002 6041 6013 -mat 2 2 2 2 2 2 -dir 1 2 3 4 5 6 
element zeroLength 22003 6042 6014 -mat 2 2 2 2 2 2 -dir 1 2 3 4 5 6 
element zeroLength 22004 6043 6015 -mat 2 2 2 2 2 2 -dir 1 2 3 4 5 6 
element zeroLength 22005 6044 6016 -mat 2 2 2 2 2 2 -dir 1 2 3 4 5 6 
element zeroLength 22006 6045 6017 -mat 2 2 2 2 2 2 -dir 1 2 3 4 5 6 
uniaxialMaterial ModIMKPeakOriented 17 40034151251.804169 0.000591 0.000591 4367879.211536 -4367879.211536 10.0 10.0 10.0 10.0 1.0 1.0 1.0 1.0 0.027698 0.027698 0.081976 0.081976 0.240000 0.240000 1.000000 1.000000 1.0 1.0 
element zeroLength 17 6046 6000 -mat 17 -dir 6 
equalDOF 6000 6046 1 2 3 5 
uniaxialMaterial ModIMKPeakOriented 18 40034151251.804169 0.000551 0.000551 4161979.302455 -4161979.302455 10.0 10.0 10.0 10.0 1.0 1.0 1.0 1.0 0.027698 0.027698 0.081976 0.081976 0.240000 0.240000 1.000000 1.000000 1.0 1.0 
element zeroLength 18 6046 6000 -mat 18 -dir 4 
uniaxialMaterial ModIMKPeakOriented 19 40034151251.804169 0.000591 0.000591 4367879.211536 -4367879.211536 10.0 10.0 10.0 10.0 1.0 1.0 1.0 1.0 0.027698 0.027698 0.081976 0.081976 0.240000 0.240000 1.000000 1.000000 1.0 1.0 
element zeroLength 19 6047 6018 -mat 19 -dir 6 
equalDOF 6018 6047 1 2 3 5 
uniaxialMaterial ModIMKPeakOriented 20 40034151251.804169 0.000551 0.000551 4161979.302455 -4161979.302455 10.0 10.0 10.0 10.0 1.0 1.0 1.0 1.0 0.027698 0.027698 0.081976 0.081976 0.240000 0.240000 1.000000 1.000000 1.0 1.0 
element zeroLength 20 6047 6018 -mat 20 -dir 4 
uniaxialMaterial ModIMKPeakOriented 21 30094325491.249367 0.001299 0.002685 6968030.248452 -13766379.404076 10.0 10.0 10.0 10.0 1.0 1.0 1.0 1.0 0.025000 0.025000 0.031250 0.031250 0.200000 0.200000 1.000000 1.000000 1.0 1.0 
element zeroLength 21 6048 6019 -mat 21 -dir 6 
equalDOF 6019 6048 1 2 3 4 5 
uniaxialMaterial ModIMKPeakOriented 22 30094325491.249367 0.001299 0.002685 6968030.248452 -13766379.404076 10.0 10.0 10.0 10.0 1.0 1.0 1.0 1.0 0.025000 0.025000 0.031250 0.031250 0.200000 0.200000 1.000000 1.000000 1.0 1.0 
element zeroLength 22 6049 6021 -mat 22 -dir 6 
equalDOF 6021 6049 1 2 3 4 5 
uniaxialMaterial ModIMKPeakOriented 23 40034151251.804169 0.000591 0.000591 4367879.211536 -4367879.211536 10.0 10.0 10.0 10.0 1.0 1.0 1.0 1.0 0.027698 0.027698 0.081976 0.081976 0.240000 0.240000 1.000000 1.000000 1.0 1.0 
element zeroLength 23 6050 6003 -mat 23 -dir 6 
equalDOF 6003 6050 1 2 3 5 
uniaxialMaterial ModIMKPeakOriented 24 40034151251.804169 0.000551 0.000551 4161979.302455 -4161979.302455 10.0 10.0 10.0 10.0 1.0 1.0 1.0 1.0 0.027698 0.027698 0.081976 0.081976 0.240000 0.240000 1.000000 1.000000 1.0 1.0 
element zeroLength 24 6050 6003 -mat 24 -dir 4 
uniaxialMaterial ModIMKPeakOriented 25 40034151251.804169 0.000591 0.000591 4367879.211536 -4367879.211536 10.0 10.0 10.0 10.0 1.0 1.0 1.0 1.0 0.027698 0.027698 0.081976 0.081976 0.240000 0.240000 1.000000 1.000000 1.0 1.0 
element zeroLength 25 6051 6020 -mat 25 -dir 6 
equalDOF 6020 6051 1 2 3 5 
uniaxialMaterial ModIMKPeakOriented 26 40034151251.804169 0.000551 0.000551 4161979.302455 -4161979.302455 10.0 10.0 10.0 10.0 1.0 1.0 1.0 1.0 0.027698 0.027698 0.081976 0.081976 0.240000 0.240000 1.000000 1.000000 1.0 1.0 
element zeroLength 26 6051 6020 -mat 26 -dir 4 
uniaxialMaterial ModIMKPeakOriented 27 40034151251.804169 0.000591 0.000591 4367879.211536 -4367879.211536 10.0 10.0 10.0 10.0 1.0 1.0 1.0 1.0 0.027698 0.027698 0.081976 0.081976 0.240000 0.240000 1.000000 1.000000 1.0 1.0 
element zeroLength 27 6052 6004 -mat 27 -dir 6 
equalDOF 6004 6052 1 2 3 5 
uniaxialMaterial ModIMKPeakOriented 28 40034151251.804169 0.000551 0.000551 4161979.302455 -4161979.302455 10.0 10.0 10.0 10.0 1.0 1.0 1.0 1.0 0.027698 0.027698 0.081976 0.081976 0.240000 0.240000 1.000000 1.000000 1.0 1.0 
element zeroLength 28 6052 6004 -mat 28 -dir 4 
uniaxialMaterial ModIMKPeakOriented 29 40034151251.804169 0.000591 0.000591 4367879.211536 -4367879.211536 10.0 10.0 10.0 10.0 1.0 1.0 1.0 1.0 0.027698 0.027698 0.081976 0.081976 0.240000 0.240000 1.000000 1.000000 1.0 1.0 
element zeroLength 29 6053 6022 -mat 29 -dir 6 
equalDOF 6022 6053 1 2 3 5 
uniaxialMaterial ModIMKPeakOriented 30 40034151251.804169 0.000551 0.000551 4161979.302455 -4161979.302455 10.0 10.0 10.0 10.0 1.0 1.0 1.0 1.0 0.027698 0.027698 0.081976 0.081976 0.240000 0.240000 1.000000 1.000000 1.0 1.0 
element zeroLength 30 6053 6022 -mat 30 -dir 4 
uniaxialMaterial ModIMKPeakOriented 31 30094325491.249367 0.001299 0.002685 6968030.248452 -13766379.404076 10.0 10.0 10.0 10.0 1.0 1.0 1.0 1.0 0.025000 0.025000 0.031250 0.031250 0.200000 0.200000 1.000000 1.000000 1.0 1.0 
element zeroLength 31 6054 6023 -mat 31 -dir 6 
equalDOF 6023 6054 1 2 3 4 5 
uniaxialMaterial ModIMKPeakOriented 32 30094325491.249367 0.001299 0.002685 6968030.248452 -13766379.404076 10.0 10.0 10.0 10.0 1.0 1.0 1.0 1.0 0.025000 0.025000 0.031250 0.031250 0.200000 0.200000 1.000000 1.000000 1.0 1.0 
element zeroLength 32 6055 6025 -mat 32 -dir 6 
equalDOF 6025 6055 1 2 3 4 5 
uniaxialMaterial ModIMKPeakOriented 33 40034151251.804169 0.000591 0.000591 4367879.211536 -4367879.211536 10.0 10.0 10.0 10.0 1.0 1.0 1.0 1.0 0.027698 0.027698 0.081976 0.081976 0.240000 0.240000 1.000000 1.000000 1.0 1.0 
element zeroLength 33 6056 6007 -mat 33 -dir 6 
equalDOF 6007 6056 1 2 3 5 
uniaxialMaterial ModIMKPeakOriented 34 40034151251.804169 0.000551 0.000551 4161979.302455 -4161979.302455 10.0 10.0 10.0 10.0 1.0 1.0 1.0 1.0 0.027698 0.027698 0.081976 0.081976 0.240000 0.240000 1.000000 1.000000 1.0 1.0 
element zeroLength 34 6056 6007 -mat 34 -dir 4 
uniaxialMaterial ModIMKPeakOriented 35 40034151251.804169 0.000591 0.000591 4367879.211536 -4367879.211536 10.0 10.0 10.0 10.0 1.0 1.0 1.0 1.0 0.027698 0.027698 0.081976 0.081976 0.240000 0.240000 1.000000 1.000000 1.0 1.0 
element zeroLength 35 6057 6024 -mat 35 -dir 6 
equalDOF 6024 6057 1 2 3 5 
uniaxialMaterial ModIMKPeakOriented 36 40034151251.804169 0.000551 0.000551 4161979.302455 -4161979.302455 10.0 10.0 10.0 10.0 1.0 1.0 1.0 1.0 0.027698 0.027698 0.081976 0.081976 0.240000 0.240000 1.000000 1.000000 1.0 1.0 
element zeroLength 36 6057 6024 -mat 36 -dir 4 
uniaxialMaterial ModIMKPeakOriented 37 19657242.777600 0.000000 0.000000 1140534.957040 -1140534.957040 10.0 10.0 10.0 10.0 1.0 1.0 1.0 1.0 1.141979 1.141979 1.500000 1.500000 0.200000 0.200000 9999999.000000 9999999.000000 1.0 1.0 
element zeroLength 37 6058 6008 -mat 37 -dir 3 
equalDOF 6008 6058 1 2 4 5 
uniaxialMaterial ModIMKPeakOriented 38 31331679266.764797 0.001057 0.001057 1765349.179376 -1765349.179376 10.0 10.0 10.0 10.0 1.0 1.0 1.0 1.0 0.008000 0.008000 0.008750 0.008750 0.200000 0.200000 1.000000 1.000000 1.0 1.0 
element zeroLength 38 6058 6008 -mat 38 -dir 6 
uniaxialMaterial ModIMKPeakOriented 39 19657242.777600 0.000000 0.000000 1140534.957040 -1140534.957040 10.0 10.0 10.0 10.0 1.0 1.0 1.0 1.0 1.141979 1.141979 1.500000 1.500000 0.200000 0.200000 9999999.000000 9999999.000000 1.0 1.0 
element zeroLength 39 6059 6010 -mat 39 -dir 3 
equalDOF 6010 6059 1 2 4 5 
uniaxialMaterial ModIMKPeakOriented 40 31331679266.764797 0.001057 0.001057 1765349.179376 -1765349.179376 10.0 10.0 10.0 10.0 1.0 1.0 1.0 1.0 0.008000 0.008000 0.008750 0.008750 0.200000 0.200000 1.000000 1.000000 1.0 1.0 
element zeroLength 40 6059 6010 -mat 40 -dir 6 
uniaxialMaterial ModIMKPeakOriented 41 40034151251.804169 0.000591 0.000591 4367879.211536 -4367879.211536 10.0 10.0 10.0 10.0 1.0 1.0 1.0 1.0 0.027698 0.027698 0.081976 0.081976 0.240000 0.240000 1.000000 1.000000 1.0 1.0 
element zeroLength 41 6060 6001 -mat 41 -dir 6 
equalDOF 6001 6060 1 2 3 5 
uniaxialMaterial ModIMKPeakOriented 42 40034151251.804169 0.000551 0.000551 4161979.302455 -4161979.302455 10.0 10.0 10.0 10.0 1.0 1.0 1.0 1.0 0.027698 0.027698 0.081976 0.081976 0.240000 0.240000 1.000000 1.000000 1.0 1.0 
element zeroLength 42 6060 6001 -mat 42 -dir 4 
uniaxialMaterial ModIMKPeakOriented 43 40034151251.804169 0.000591 0.000591 4367879.211536 -4367879.211536 10.0 10.0 10.0 10.0 1.0 1.0 1.0 1.0 0.027698 0.027698 0.081976 0.081976 0.240000 0.240000 1.000000 1.000000 1.0 1.0 
element zeroLength 43 6061 6026 -mat 43 -dir 6 
equalDOF 6026 6061 1 2 3 5 
uniaxialMaterial ModIMKPeakOriented 44 40034151251.804169 0.000551 0.000551 4161979.302455 -4161979.302455 10.0 10.0 10.0 10.0 1.0 1.0 1.0 1.0 0.027698 0.027698 0.081976 0.081976 0.240000 0.240000 1.000000 1.000000 1.0 1.0 
element zeroLength 44 6061 6026 -mat 44 -dir 4 
uniaxialMaterial ModIMKPeakOriented 45 30094325491.249367 0.001299 0.002685 6968030.248452 -13766379.404076 10.0 10.0 10.0 10.0 1.0 1.0 1.0 1.0 0.025000 0.025000 0.031250 0.031250 0.200000 0.200000 1.000000 1.000000 1.0 1.0 
element zeroLength 45 6062 6027 -mat 45 -dir 6 
equalDOF 6027 6062 1 2 3 4 5 
uniaxialMaterial ModIMKPeakOriented 46 30094325491.249367 0.001299 0.002685 6968030.248452 -13766379.404076 10.0 10.0 10.0 10.0 1.0 1.0 1.0 1.0 0.025000 0.025000 0.031250 0.031250 0.200000 0.200000 1.000000 1.000000 1.0 1.0 
element zeroLength 46 6063 6029 -mat 46 -dir 6 
equalDOF 6029 6063 1 2 3 4 5 
uniaxialMaterial ModIMKPeakOriented 47 40034151251.804169 0.000591 0.000591 4367879.211536 -4367879.211536 10.0 10.0 10.0 10.0 1.0 1.0 1.0 1.0 0.027698 0.027698 0.081976 0.081976 0.240000 0.240000 1.000000 1.000000 1.0 1.0 
element zeroLength 47 6064 6002 -mat 47 -dir 6 
equalDOF 6002 6064 1 2 3 5 
uniaxialMaterial ModIMKPeakOriented 48 40034151251.804169 0.000551 0.000551 4161979.302455 -4161979.302455 10.0 10.0 10.0 10.0 1.0 1.0 1.0 1.0 0.027698 0.027698 0.081976 0.081976 0.240000 0.240000 1.000000 1.000000 1.0 1.0 
element zeroLength 48 6064 6002 -mat 48 -dir 4 
uniaxialMaterial ModIMKPeakOriented 49 40034151251.804169 0.000591 0.000591 4367879.211536 -4367879.211536 10.0 10.0 10.0 10.0 1.0 1.0 1.0 1.0 0.027698 0.027698 0.081976 0.081976 0.240000 0.240000 1.000000 1.000000 1.0 1.0 
element zeroLength 49 6065 6028 -mat 49 -dir 6 
equalDOF 6028 6065 1 2 3 5 
uniaxialMaterial ModIMKPeakOriented 50 40034151251.804169 0.000551 0.000551 4161979.302455 -4161979.302455 10.0 10.0 10.0 10.0 1.0 1.0 1.0 1.0 0.027698 0.027698 0.081976 0.081976 0.240000 0.240000 1.000000 1.000000 1.0 1.0 
element zeroLength 50 6065 6028 -mat 50 -dir 4 
uniaxialMaterial ModIMKPeakOriented 51 40034151251.804169 0.000591 0.000591 4367879.211536 -4367879.211536 10.0 10.0 10.0 10.0 1.0 1.0 1.0 1.0 0.027698 0.027698 0.081976 0.081976 0.240000 0.240000 1.000000 1.000000 1.0 1.0 
element zeroLength 51 6066 6005 -mat 51 -dir 6 
equalDOF 6005 6066 1 2 3 5 
uniaxialMaterial ModIMKPeakOriented 52 40034151251.804169 0.000551 0.000551 4161979.302455 -4161979.302455 10.0 10.0 10.0 10.0 1.0 1.0 1.0 1.0 0.027698 0.027698 0.081976 0.081976 0.240000 0.240000 1.000000 1.000000 1.0 1.0 
element zeroLength 52 6066 6005 -mat 52 -dir 4 
uniaxialMaterial ModIMKPeakOriented 53 40034151251.804169 0.000591 0.000591 4367879.211536 -4367879.211536 10.0 10.0 10.0 10.0 1.0 1.0 1.0 1.0 0.027698 0.027698 0.081976 0.081976 0.240000 0.240000 1.000000 1.000000 1.0 1.0 
element zeroLength 53 6067 6030 -mat 53 -dir 6 
equalDOF 6030 6067 1 2 3 5 
uniaxialMaterial ModIMKPeakOriented 54 40034151251.804169 0.000551 0.000551 4161979.302455 -4161979.302455 10.0 10.0 10.0 10.0 1.0 1.0 1.0 1.0 0.027698 0.027698 0.081976 0.081976 0.240000 0.240000 1.000000 1.000000 1.0 1.0 
element zeroLength 54 6067 6030 -mat 54 -dir 4 
uniaxialMaterial ModIMKPeakOriented 55 30094325491.249367 0.001299 0.002685 6968030.248452 -13766379.404076 10.0 10.0 10.0 10.0 1.0 1.0 1.0 1.0 0.025000 0.025000 0.031250 0.031250 0.200000 0.200000 1.000000 1.000000 1.0 1.0 
element zeroLength 55 6068 6031 -mat 55 -dir 6 
equalDOF 6031 6068 1 2 3 4 5 
uniaxialMaterial ModIMKPeakOriented 56 30094325491.249367 0.001299 0.002685 6968030.248452 -13766379.404076 10.0 10.0 10.0 10.0 1.0 1.0 1.0 1.0 0.025000 0.025000 0.031250 0.031250 0.200000 0.200000 1.000000 1.000000 1.0 1.0 
element zeroLength 56 6069 6033 -mat 56 -dir 6 
equalDOF 6033 6069 1 2 3 4 5 
uniaxialMaterial ModIMKPeakOriented 57 40034151251.804169 0.000591 0.000591 4367879.211536 -4367879.211536 10.0 10.0 10.0 10.0 1.0 1.0 1.0 1.0 0.027698 0.027698 0.081976 0.081976 0.240000 0.240000 1.000000 1.000000 1.0 1.0 
element zeroLength 57 6070 6006 -mat 57 -dir 6 
equalDOF 6006 6070 1 2 3 5 
uniaxialMaterial ModIMKPeakOriented 58 40034151251.804169 0.000551 0.000551 4161979.302455 -4161979.302455 10.0 10.0 10.0 10.0 1.0 1.0 1.0 1.0 0.027698 0.027698 0.081976 0.081976 0.240000 0.240000 1.000000 1.000000 1.0 1.0 
element zeroLength 58 6070 6006 -mat 58 -dir 4 
uniaxialMaterial ModIMKPeakOriented 59 40034151251.804169 0.000591 0.000591 4367879.211536 -4367879.211536 10.0 10.0 10.0 10.0 1.0 1.0 1.0 1.0 0.027698 0.027698 0.081976 0.081976 0.240000 0.240000 1.000000 1.000000 1.0 1.0 
element zeroLength 59 6071 6032 -mat 59 -dir 6 
equalDOF 6032 6071 1 2 3 5 
uniaxialMaterial ModIMKPeakOriented 60 40034151251.804169 0.000551 0.000551 4161979.302455 -4161979.302455 10.0 10.0 10.0 10.0 1.0 1.0 1.0 1.0 0.027698 0.027698 0.081976 0.081976 0.240000 0.240000 1.000000 1.000000 1.0 1.0 
element zeroLength 60 6071 6032 -mat 60 -dir 4 
puts "Model Build Complete" 
