model basic -ndm 3 -ndf 6 
node 6000 0.000000 0.000000 0.000000 
node 6001 0.000000 120.000000 0.000000 
node 6002 300.000000 120.000000 0.000000 
node 6003 300.000000 0.000000 0.000000 
node 6004 0.000000 240.000000 0.000000 
node 6005 300.000000 240.000000 0.000000 
node 6006 -12.000000 105.000000 0.000000 
node 6007 12.000000 105.000000 0.000000 
node 6008 0.000000 90.000000 0.000000 
node 6009 288.000000 105.000000 0.000000 
node 6010 312.000000 105.000000 0.000000 
node 6011 300.000000 90.000000 0.000000 
node 6012 -12.000000 225.000000 0.000000 
node 6013 12.000000 225.000000 0.000000 
node 6014 0.000000 210.000000 0.000000 
node 6015 288.000000 225.000000 0.000000 
node 6016 312.000000 225.000000 0.000000 
node 6017 300.000000 210.000000 0.000000 
fix 6000 1 1 1 1 1 1 
fix 6001 0 0 0 0 0 0 
fix 6002 0 0 0 0 0 0 
fix 6003 1 1 1 1 1 1 
fix 6004 0 0 0 0 0 0 
fix 6005 0 0 0 0 0 0 
fix 6006 0 0 0 0 0 0 
fix 6007 0 0 0 0 0 0 
fix 6008 0 0 0 0 0 0 
fix 6009 0 0 0 0 0 0 
fix 6010 0 0 0 0 0 0 
fix 6011 0 0 0 0 0 0 
fix 6012 0 0 0 0 0 0 
fix 6013 0 0 0 0 0 0 
fix 6014 0 0 0 0 0 0 
fix 6015 0 0 0 0 0 0 
fix 6016 0 0 0 0 0 0 
fix 6017 0 0 0 0 0 0 
mass 6000 0.000000 0. 0.000000 0. 0. 0. 
mass 6001 388.601036 0. 388.601036 0. 0. 0. 
mass 6002 388.601036 0. 388.601036 0. 0. 0. 
mass 6003 0.000000 0. 0.000000 0. 0. 0. 
mass 6004 388.601036 0. 388.601036 0. 0. 0. 
mass 6005 388.601036 0. 388.601036 0. 0. 0. 
mass 6006 0.000000 0. 0.000000 0. 0. 0. 
mass 6007 0.000000 0. 0.000000 0. 0. 0. 
mass 6008 0.000000 0. 0.000000 0. 0. 0. 
mass 6009 0.000000 0. 0.000000 0. 0. 0. 
mass 6010 0.000000 0. 0.000000 0. 0. 0. 
mass 6011 0.000000 0. 0.000000 0. 0. 0. 
mass 6012 0.000000 0. 0.000000 0. 0. 0. 
mass 6013 0.000000 0. 0.000000 0. 0. 0. 
mass 6014 0.000000 0. 0.000000 0. 0. 0. 
mass 6015 0.000000 0. 0.000000 0. 0. 0. 
mass 6016 0.000000 0. 0.000000 0. 0. 0. 
mass 6017 0.000000 0. 0.000000 0. 0. 0. 
geomTransf PDelta 1 0 0 1 
geomTransf PDelta 2 0 0 1 
geomTransf PDelta 3 -1 0 0 
geomTransf PDelta 4 1 0 0 
element elasticBeamColumn 1 6000 6008 576.000000 4936344.802000 2146236.870000 55296.000000 11059.200000 11059.200000 1 
element elasticBeamColumn 2 6007 6009 720.000000 4415201.015000 1919652.615000 88560.000000 149248.000000 28503.571430 2 
element elasticBeamColumn 3 6003 6011 576.000000 4936344.802000 2146236.870000 55296.000000 11059.200000 11059.200000 1 
element elasticBeamColumn 4 6001 6014 576.000000 4936344.802000 2146236.870000 55296.000000 11059.200000 11059.200000 1 
element elasticBeamColumn 5 6013 6015 720.000000 4415201.015000 1919652.615000 88560.000000 149248.000000 28503.571430 2 
element elasticBeamColumn 6 6002 6017 576.000000 4936344.802000 2146236.870000 55296.000000 11059.200000 11059.200000 1 
uniaxialMaterial Elastic 1 999999999999999. 
uniaxialMaterial Elastic 10001 999999999999999. 
node 40001 0.000000 105.000000 0.000000 
node 50001 0.000000 105.000000 0.000000 
node 44001 -6.000000 105.000000 0.000000 
node 45001 6.000000 105.000000 0.000000 
node 54001 0.000000 97.500000 0.000000 
node 55001 0.000000 112.500000 0.000000 
element elasticBeamColumn 1000001 6006 44001 1000. 99999999. 99999999. 99999. 200000. 200000. 2 
element elasticBeamColumn 1000002 45001 6007 720.000000 4415201.015000 1919652.615000 88560.000000 149248.000000 28503.571430 2 
element elasticBeamColumn 1000007 44001 40001 1000. 99999999. 99999999. 99999. 200000. 200000. 2 
element elasticBeamColumn 1000008 40001 45001 1000. 99999999. 99999999. 99999. 200000. 200000. 2 
element elasticBeamColumn 1000003 6008 54001 576.000000 4936344.802000 2146236.870000 55296.000000 11059.200000 11059.200000 1 
element elasticBeamColumn 1000004 55001 6001 576.000000 4936344.802000 2146236.870000 55296.000000 11059.200000 11059.200000 1 
element elasticBeamColumn 1000009 54001 50001 1000. 99999999. 99999999. 99999. 200000. 200000. 1 
element elasticBeamColumn 1000010 50001 55001 1000. 99999999. 99999999. 99999. 200000. 200000. 1 
element zeroLength 10001 40001 50001 -mat 10001 -dir 6 
equalDOF 40001 50001 1 2 3 4 5 
uniaxialMaterial Elastic 10002 999999999999999. 
node 40002 300.000000 105.000000 0.000000 
node 50002 300.000000 105.000000 0.000000 
node 44002 294.000000 105.000000 0.000000 
node 45002 306.000000 105.000000 0.000000 
node 54002 300.000000 97.500000 0.000000 
node 55002 300.000000 112.500000 0.000000 
element elasticBeamColumn 2000001 6009 44002 720.000000 4415201.015000 1919652.615000 88560.000000 149248.000000 28503.571430 2 
element elasticBeamColumn 2000002 45002 6010 1000. 99999999. 99999999. 99999. 200000. 200000. 2 
element elasticBeamColumn 2000007 44002 40002 1000. 99999999. 99999999. 99999. 200000. 200000. 2 
element elasticBeamColumn 2000008 40002 45002 1000. 99999999. 99999999. 99999. 200000. 200000. 2 
element elasticBeamColumn 2000003 6011 54002 576.000000 4936344.802000 2146236.870000 55296.000000 11059.200000 11059.200000 1 
element elasticBeamColumn 2000004 55002 6002 576.000000 4936344.802000 2146236.870000 55296.000000 11059.200000 11059.200000 1 
element elasticBeamColumn 2000009 54002 50002 1000. 99999999. 99999999. 99999. 200000. 200000. 1 
element elasticBeamColumn 2000010 50002 55002 1000. 99999999. 99999999. 99999. 200000. 200000. 1 
element zeroLength 10002 40002 50002 -mat 10002 -dir 6 
equalDOF 40002 50002 1 2 3 4 5 
uniaxialMaterial Elastic 10003 999999999999999. 
node 40003 0.000000 225.000000 0.000000 
node 50003 0.000000 225.000000 0.000000 
node 44003 -6.000000 225.000000 0.000000 
node 45003 6.000000 225.000000 0.000000 
node 54003 0.000000 217.500000 0.000000 
node 55003 0.000000 232.500000 0.000000 
element elasticBeamColumn 3000001 6012 44003 1000. 99999999. 99999999. 99999. 200000. 200000. 2 
element elasticBeamColumn 3000002 45003 6013 720.000000 4415201.015000 1919652.615000 88560.000000 149248.000000 28503.571430 2 
element elasticBeamColumn 3000007 44003 40003 1000. 99999999. 99999999. 99999. 200000. 200000. 2 
element elasticBeamColumn 3000008 40003 45003 1000. 99999999. 99999999. 99999. 200000. 200000. 2 
element elasticBeamColumn 3000003 6014 54003 576.000000 4936344.802000 2146236.870000 55296.000000 11059.200000 11059.200000 1 
element elasticBeamColumn 3000004 55003 6004 1000. 99999999. 99999999. 99999. 200000. 200000. 1 
element elasticBeamColumn 3000009 54003 50003 1000. 99999999. 99999999. 99999. 200000. 200000. 1 
element elasticBeamColumn 3000010 50003 55003 1000. 99999999. 99999999. 99999. 200000. 200000. 1 
element zeroLength 10003 40003 50003 -mat 10003 -dir 6 
equalDOF 40003 50003 1 2 3 4 5 
uniaxialMaterial Elastic 10004 999999999999999. 
node 40004 300.000000 225.000000 0.000000 
node 50004 300.000000 225.000000 0.000000 
node 44004 294.000000 225.000000 0.000000 
node 45004 306.000000 225.000000 0.000000 
node 54004 300.000000 217.500000 0.000000 
node 55004 300.000000 232.500000 0.000000 
element elasticBeamColumn 4000001 6015 44004 720.000000 4415201.015000 1919652.615000 88560.000000 149248.000000 28503.571430 2 
element elasticBeamColumn 4000002 45004 6016 1000. 99999999. 99999999. 99999. 200000. 200000. 2 
element elasticBeamColumn 4000007 44004 40004 1000. 99999999. 99999999. 99999. 200000. 200000. 2 
element elasticBeamColumn 4000008 40004 45004 1000. 99999999. 99999999. 99999. 200000. 200000. 2 
element elasticBeamColumn 4000003 6017 54004 576.000000 4936344.802000 2146236.870000 55296.000000 11059.200000 11059.200000 1 
element elasticBeamColumn 4000004 55004 6005 1000. 99999999. 99999999. 99999. 200000. 200000. 1 
element elasticBeamColumn 4000009 54004 50004 1000. 99999999. 99999999. 99999. 200000. 200000. 1 
element elasticBeamColumn 4000010 50004 55004 1000. 99999999. 99999999. 99999. 200000. 200000. 1 
element zeroLength 10004 40004 50004 -mat 10004 -dir 6 
equalDOF 40004 50004 1 2 3 4 5 
